benzene
  MatterVz07262600003D

 12 12  0  0  0  0  0  0  0  0999 V2000
    1.3970    0.0000    0.0000 C   0  0  0  0  0  0  0  0  0  0  0  0
    0.6985    1.2098    0.0000 C   0  0  0  0  0  0  0  0  0  0  0  0
   -0.6985    1.2098    0.0000 C   0  0  0  0  0  0  0  0  0  0  0  0
   -1.3970    0.0000    0.0000 C   0  0  0  0  0  0  0  0  0  0  0  0
   -0.6985   -1.2098    0.0000 C   0  0  0  0  0  0  0  0  0  0  0  0
    0.6985   -1.2098    0.0000 C   0  0  0  0  0  0  0  0  0  0  0  0
    2.4810    0.0000    0.0000 H   0  0  0  0  0  0  0  0  0  0  0  0
    1.2405    2.1486    0.0000 H   0  0  0  0  0  0  0  0  0  0  0  0
   -1.2405    2.1486    0.0000 H   0  0  0  0  0  0  0  0  0  0  0  0
   -2.4810    0.0000    0.0000 H   0  0  0  0  0  0  0  0  0  0  0  0
   -1.2405   -2.1486    0.0000 H   0  0  0  0  0  0  0  0  0  0  0  0
    1.2405   -2.1486    0.0000 H   0  0  0  0  0  0  0  0  0  0  0  0
  1  2  2  0  0  0  0
  2  3  1  0  0  0  0
  3  4  2  0  0  0  0
  4  5  1  0  0  0  0
  5  6  2  0  0  0  0
  6  1  1  0  0  0  0
  1  7  1  0  0  0  0
  2  8  1  0  0  0  0
  3  9  1  0  0  0  0
  4 10  1  0  0  0  0
  5 11  1  0  0  0  0
  6 12  1  0  0  0  0
M  END
> <NAME>
benzene

> <FORMULA>
C6H6

$$$$
