@<TRIPOS>MOLECULE
benzene
 12 12 1 0 0
SMALL
USER_CHARGES

@<TRIPOS>ATOM
      1 C1          1.3970    0.0000    0.0000 C.ar   1 BENZENE    -0.0620
      2 C2          0.6985    1.2098    0.0000 C.ar   1 BENZENE    -0.0620
      3 C3         -0.6985    1.2098    0.0000 C.ar   1 BENZENE    -0.0620
      4 C4         -1.3970    0.0000    0.0000 C.ar   1 BENZENE    -0.0620
      5 C5         -0.6985   -1.2098    0.0000 C.ar   1 BENZENE    -0.0620
      6 C6          0.6985   -1.2098    0.0000 C.ar   1 BENZENE    -0.0620
      7 H7          2.4810    0.0000    0.0000 H      1 BENZENE    0.0620
      8 H8          1.2405    2.1486    0.0000 H      1 BENZENE    0.0620
      9 H9         -1.2405    2.1486    0.0000 H      1 BENZENE    0.0620
     10 H10        -2.4810    0.0000    0.0000 H      1 BENZENE    0.0620
     11 H11        -1.2405   -2.1486    0.0000 H      1 BENZENE    0.0620
     12 H12         1.2405   -2.1486    0.0000 H      1 BENZENE    0.0620
@<TRIPOS>BOND
     1    1    2 ar
     2    2    3 ar
     3    3    4 ar
     4    4    5 ar
     5    5    6 ar
     6    6    1 ar
     7    1    7 1
     8    2    8 1
     9    3    9 1
    10    4   10 1
    11    5   11 1
    12    6   12 1
